/*--------------------------------*- C++ -*----------------------------------*\
  =========                 |				
  \\      /  F ield         | OpenFOAM: The Open Source CFD Toolbox
   \\    /   O peration     | Website:  https://openfoam.org
    \\  /    A nd           | Version:  9                                   	
     \\/     M anipulation  |
\*---------------------------------------------------------------------------*/
FoamFile
{
    format      ascii;
    class       extendedFeatureEdgeMesh;
    object      onshape_all.extendedFeatureEdgeMesh;
}
// * * * * * * * * * * * * * * * * * * * * * * * * * * * * * * * * * * * * * //

// points

1148
(
(1 4.2862599e-16 1)
(1 6.1232303e-17 -1)
(0.99975997 0.021890899 1)
(0.99975997 -0.021890899 1)
(0.99616802 -0.087458603 1)
(0.99784398 -0.065630697 1)
(0.99904197 -0.0437713 1)
(0.98828 -0.152649 1)
(0.99138498 -0.130978 1)
(0.99401498 -0.109245 1)
(0.97613102 -0.217182 1)
(0.98065197 -0.195761 1)
(0.98470199 -0.174247 1)
(0.959773 -0.28077799 1)
(0.965689 -0.2597 1)
(0.97114301 -0.238498 1)
(0.93927598 -0.34316301 1)
(0.94656301 -0.322519 1)
(0.95339602 -0.30172101 1)
(0.914729 -0.40406799 1)
(0.92335498 -0.38394701 1)
(0.931539 -0.36364201 1)
(0.88623703 -0.463231 1)
(0.89616603 -0.44372001 1)
(0.90566403 -0.423996 1)
(0.85392398 -0.52039701 1)
(0.86511201 -0.50157899 1)
(0.875884 -0.482521 1)
(0.81792903 -0.57531899 1)
(0.83032799 -0.55727601 1)
(0.84232801 -0.53896499 1)
(0.77840698 -0.62775999 1)
(0.79196298 -0.610569 1)
(0.80513901 -0.593086 1)
(0.73552901 -0.67749298 1)
(0.75018299 -0.66123003 1)
(0.76447898 -0.64464903 1)
(0.68947899 -0.72430599 1)
(0.70516902 -0.70903897 1)
(0.72052199 -0.69343299 1)
(0.64045501 -0.767995 1)
(0.65711403 -0.75379097 1)
(0.67345798 -0.73922598 1)
(0.58867002 -0.80837297 1)
(0.60622501 -0.79529297 1)
(0.62348998 -0.78183198 1)
(0.534347 -0.84526497 1)
(0.55272299 -0.83336502 1)
(0.57083303 -0.82106602 1)
(0.47771999 -0.87851202 1)
(0.49683699 -0.86784399 1)
(0.51571602 -0.85676003 1)
(0.41903201 -0.90797102 1)
(0.43880799 -0.89858103 1)
(0.45837399 -0.88875902 1)
(0.358538 -0.93351501 1)
(0.37888801 -0.92544299 1)
(0.39905599 -0.91692698 1)
(0.296498 -0.955033 1)
(0.31733301 -0.94831401 1)
(0.33801699 -0.94114 1)
(0.233179 -0.97243398 1)
(0.25441101 -0.96709597 1)
(0.27552 -0.96129501 1)
(0.168855 -0.985641 1)
(0.190391 -0.98170799 1)
(0.211836 -0.977305 1)
(0.103803 -0.99459797 1)
(0.12555 -0.99208701 1)
(0.147238 -0.98910099 1)
(0.038302701 -0.99926603 1)
(0.0601684 -0.99818802 1)
(0.082005203 -0.99663198 1)
(-0.027362401 -0.99962598 1)
(-0.0054731299 -0.99998498 1)
(0.016418699 -0.999865 1)
(-0.0929095 -0.99567503 1)
(-0.071091004 -0.99747002 1)
(-0.049238499 -0.99878699 1)
(-0.15805601 -0.98742998 1)
(-0.136402 -0.99065399 1)
(-0.114683 -0.993402 1)
(-0.22252101 -0.97492802 1)
(-0.20112599 -0.97956502 1)
(-0.179634 -0.98373401 1)
(-0.286026 -0.95822197 1)
(-0.26498201 -0.96425301 1)
(-0.24381 -0.969823 1)
(-0.34829801 -0.93738401 1)
(-0.32769501 -0.94478399 1)
(-0.306934 -0.95173103 1)
(-0.409069 -0.91250402 1)
(-0.38899499 -0.92123997 1)
(-0.36873499 -0.92953402 1)
(-0.46807501 -0.88368899 1)
(-0.44861799 -0.89372402 1)
(-0.42894599 -0.90333003 1)
(-0.52506298 -0.85106301 1)
(-0.50630599 -0.86235398 1)
(-0.48730701 -0.87322998 1)
(-0.57978702 -0.81476802 1)
(-0.56181198 -0.82726502 1)
(-0.54356802 -0.83936501 1)
(-0.63200998 -0.77495998 1)
(-0.61489397 -0.78860903 1)
(-0.59748399 -0.80188102 1)
(-0.68150902 -0.73180997 1)
(-0.665326 -0.746553 1)
(-0.64882398 -0.760939 1)
(-0.72806901 -0.68550402 1)
(-0.712888 -0.70127797 1)
(-0.697366 -0.71671599 1)
(-0.77148902 -0.63624197 1)
(-0.75737602 -0.65297902 1)
(-0.74290103 -0.669402 1)
(-0.81158298 -0.58423698 1)
(-0.798599 -0.60186398 1)
(-0.78523201 -0.619201 1)
(-0.84817702 -0.52971298 1)
(-0.83637798 -0.54815298 1)
(-0.82417798 -0.56633103 1)
(-0.88111401 -0.472904 1)
(-0.87054998 -0.49207899 1)
(-0.85957003 -0.51101899 1)
(-0.91025102 -0.41405699 1)
(-0.90096903 -0.43388399 1)
(-0.89125502 -0.45350301 1)
(-0.93546301 -0.35342401 1)
(-0.92750198 -0.373817 1)
(-0.91909701 -0.39403099 1)
(-0.95664197 -0.29126701 1)
(-0.950037 -0.31213799 1)
(-0.942976 -0.33286101 1)
(-0.97369498 -0.227854 1)
(-0.96847397 -0.24911401 1)
(-0.962789 -0.270255 1)
(-0.98654997 -0.163458 1)
(-0.98273599 -0.18501499 1)
(-0.97845 -0.206484 1)
(-0.99515098 -0.098357603 1)
(-0.99276 -0.120119 1)
(-0.98989201 -0.141822 1)
(-0.999461 -0.032832999 1)
(-0.99850303 -0.054704301 1)
(-0.99706602 -0.076549299 1)
(-0.999461 0.032832999 1)
(-0.99993998 0.0109461 1)
(-0.99993998 -0.0109461 1)
(-0.99515098 0.098357603 1)
(-0.99706602 0.076549299 1)
(-0.99850303 0.054704301 1)
(-0.98654997 0.163458 1)
(-0.98989201 0.141822 1)
(-0.99276 0.120119 1)
(-0.97369498 0.227854 1)
(-0.97845 0.206484 1)
(-0.98273599 0.18501499 1)
(-0.95664197 0.29126701 1)
(-0.962789 0.270255 1)
(-0.96847397 0.24911401 1)
(-0.93546301 0.35342401 1)
(-0.942976 0.33286101 1)
(-0.950037 0.31213799 1)
(-0.91025102 0.41405699 1)
(-0.91909701 0.39403099 1)
(-0.92750198 0.373817 1)
(-0.88111401 0.472904 1)
(-0.89125502 0.45350301 1)
(-0.90096903 0.43388399 1)
(-0.84817702 0.52971298 1)
(-0.85957003 0.51101899 1)
(-0.87054998 0.49207899 1)
(-0.81158298 0.58423698 1)
(-0.82417798 0.56633103 1)
(-0.83637798 0.54815298 1)
(-0.77148902 0.63624197 1)
(-0.78523201 0.619201 1)
(-0.798599 0.60186398 1)
(-0.72806901 0.68550402 1)
(-0.74290103 0.669402 1)
(-0.75737602 0.65297902 1)
(-0.68150902 0.73180997 1)
(-0.697366 0.71671599 1)
(-0.712888 0.70127797 1)
(-0.63200998 0.77495998 1)
(-0.64882398 0.760939 1)
(-0.665326 0.746553 1)
(-0.57978702 0.81476802 1)
(-0.59748399 0.80188102 1)
(-0.61489397 0.78860903 1)
(-0.52506298 0.85106301 1)
(-0.54356802 0.83936501 1)
(-0.56181198 0.82726502 1)
(-0.46807501 0.88368899 1)
(-0.48730701 0.87322998 1)
(-0.50630599 0.86235398 1)
(-0.409069 0.91250402 1)
(-0.42894599 0.90333003 1)
(-0.44861799 0.89372402 1)
(-0.34829801 0.93738401 1)
(-0.36873499 0.92953402 1)
(-0.38899499 0.92123997 1)
(-0.286026 0.95822197 1)
(-0.306934 0.95173103 1)
(-0.32769501 0.94478399 1)
(-0.22252101 0.97492802 1)
(-0.24381 0.969823 1)
(-0.26498201 0.96425301 1)
(-0.15805601 0.98742998 1)
(-0.179634 0.98373401 1)
(-0.20112599 0.97956502 1)
(-0.0929095 0.99567503 1)
(-0.114683 0.993402 1)
(-0.136402 0.99065399 1)
(-0.027362401 0.99962598 1)
(-0.049238499 0.99878699 1)
(-0.071091004 0.99747002 1)
(0.038302701 0.99926603 1)
(0.016418699 0.999865 1)
(-0.0054731299 0.99998498 1)
(0.103803 0.99459797 1)
(0.082005203 0.99663198 1)
(0.0601684 0.99818802 1)
(0.168855 0.985641 1)
(0.147238 0.98910099 1)
(0.12555 0.99208701 1)
(0.233179 0.97243398 1)
(0.211836 0.977305 1)
(0.190391 0.98170799 1)
(0.296498 0.955033 1)
(0.27552 0.96129501 1)
(0.25441101 0.96709597 1)
(0.358538 0.93351501 1)
(0.33801699 0.94114 1)
(0.31733301 0.94831401 1)
(0.41903201 0.90797102 1)
(0.39905599 0.91692698 1)
(0.37888801 0.92544299 1)
(0.47771999 0.87851202 1)
(0.45837399 0.88875902 1)
(0.43880799 0.89858103 1)
(0.534347 0.84526497 1)
(0.51571602 0.85676003 1)
(0.49683699 0.86784399 1)
(0.58867002 0.80837297 1)
(0.57083303 0.82106602 1)
(0.55272299 0.83336502 1)
(0.64045501 0.767995 1)
(0.62348998 0.78183198 1)
(0.60622501 0.79529297 1)
(0.68947899 0.72430599 1)
(0.67345798 0.73922598 1)
(0.65711403 0.75379097 1)
(0.73552901 0.67749298 1)
(0.72052199 0.69343299 1)
(0.70516902 0.70903897 1)
(0.77840698 0.62775999 1)
(0.76447898 0.64464903 1)
(0.75018299 0.66123003 1)
(0.81792903 0.57531899 1)
(0.80513901 0.593086 1)
(0.79196298 0.610569 1)
(0.85392398 0.52039701 1)
(0.84232801 0.53896499 1)
(0.83032799 0.55727601 1)
(0.88623703 0.463231 1)
(0.875884 0.482521 1)
(0.86511201 0.50157899 1)
(0.914729 0.40406799 1)
(0.90566403 0.423996 1)
(0.89616603 0.44372001 1)
(0.93927598 0.34316301 1)
(0.931539 0.36364201 1)
(0.92335498 0.38394701 1)
(0.959773 0.28077799 1)
(0.95339602 0.30172101 1)
(0.94656301 0.322519 1)
(0.97613102 0.217182 1)
(0.97114301 0.238498 1)
(0.965689 0.2597 1)
(0.98828 0.152649 1)
(0.98470199 0.174247 1)
(0.98065197 0.195761 1)
(0.99616802 0.087458603 1)
(0.99401498 0.109245 1)
(0.99138498 0.130978 1)
(0.99904197 0.0437713 1)
(0.99784398 0.065630697 1)
(0.99993998 0.0109461 1)
(0.99993998 -0.0109461 -1)
(0.99993998 -0.0109461 1)
(0.999461 -0.032832999 1)
(0.999461 -0.032832999 -1)
(0.99850303 -0.054704301 1)
(0.99850303 -0.054704301 -1)
(0.99706602 -0.076549299 1)
(0.99706602 -0.076549299 -1)
(0.99515098 -0.098357603 1)
(0.99515098 -0.098357603 -1)
(0.99276 -0.120119 1)
(0.99276 -0.120119 -1)
(0.98989201 -0.141822 1)
(0.98989201 -0.141822 -1)
(0.98654997 -0.163458 1)
(0.98654997 -0.163458 -1)
(0.98273599 -0.18501499 1)
(0.98273599 -0.18501499 -1)
(0.97845 -0.206484 1)
(0.97845 -0.206484 -1)
(0.97369498 -0.227854 1)
(0.97369498 -0.227854 -1)
(0.96847397 -0.24911401 1)
(0.96847397 -0.24911401 -1)
(0.962789 -0.270255 1)
(0.962789 -0.270255 -1)
(0.95664197 -0.29126701 1)
(0.95664197 -0.29126701 -1)
(0.950037 -0.31213799 1)
(0.950037 -0.31213799 -1)
(0.942976 -0.33286101 1)
(0.942976 -0.33286101 -1)
(0.93546301 -0.35342401 1)
(0.93546301 -0.35342401 -1)
(0.92750198 -0.373817 1)
(0.92750198 -0.373817 -1)
(0.91909701 -0.39403099 1)
(0.91909701 -0.39403099 -1)
(0.91025102 -0.41405699 1)
(0.91025102 -0.41405699 -1)
(0.90096903 -0.43388399 1)
(0.90096903 -0.43388399 -1)
(0.89125502 -0.45350301 1)
(0.89125502 -0.45350301 -1)
(0.88111401 -0.472904 1)
(0.88111401 -0.472904 -1)
(0.87054998 -0.49207899 1)
(0.87054998 -0.49207899 -1)
(0.85957003 -0.51101899 1)
(0.85957003 -0.51101899 -1)
(0.84817702 -0.52971298 1)
(0.84817702 -0.52971298 -1)
(0.83637798 -0.54815298 1)
(0.83637798 -0.54815298 -1)
(0.82417798 -0.56633103 1)
(0.82417798 -0.56633103 -1)
(0.81158298 -0.58423698 1)
(0.81158298 -0.58423698 -1)
(0.798599 -0.60186398 1)
(0.798599 -0.60186398 -1)
(0.78523201 -0.619201 1)
(0.78523201 -0.619201 -1)
(0.77148902 -0.63624197 1)
(0.77148902 -0.63624197 -1)
(0.75737602 -0.65297902 1)
(0.75737602 -0.65297902 -1)
(0.74290103 -0.669402 1)
(0.74290103 -0.669402 -1)
(0.72806901 -0.68550402 1)
(0.72806901 -0.68550402 -1)
(0.712888 -0.70127797 1)
(0.712888 -0.70127797 -1)
(0.697366 -0.71671599 1)
(0.697366 -0.71671599 -1)
(0.68150902 -0.73180997 1)
(0.68150902 -0.73180997 -1)
(0.665326 -0.746553 1)
(0.665326 -0.746553 -1)
(0.64882398 -0.760939 1)
(0.64882398 -0.760939 -1)
(0.63200998 -0.77495998 1)
(0.63200998 -0.77495998 -1)
(0.61489397 -0.78860903 1)
(0.61489397 -0.78860903 -1)
(0.59748399 -0.80188102 1)
(0.59748399 -0.80188102 -1)
(0.57978702 -0.81476802 1)
(0.57978702 -0.81476802 -1)
(0.56181198 -0.82726502 1)
(0.56181198 -0.82726502 -1)
(0.54356802 -0.83936501 1)
(0.54356802 -0.83936501 -1)
(0.52506298 -0.85106301 1)
(0.52506298 -0.85106301 -1)
(0.50630599 -0.86235398 1)
(0.50630599 -0.86235398 -1)
(0.48730701 -0.87322998 1)
(0.48730701 -0.87322998 -1)
(0.46807501 -0.88368899 1)
(0.46807501 -0.88368899 -1)
(0.44861799 -0.89372402 1)
(0.44861799 -0.89372402 -1)
(0.42894599 -0.90333003 1)
(0.42894599 -0.90333003 -1)
(0.409069 -0.91250402 1)
(0.409069 -0.91250402 -1)
(0.38899499 -0.92123997 1)
(0.38899499 -0.92123997 -1)
(0.36873499 -0.92953402 1)
(0.36873499 -0.92953402 -1)
(0.34829801 -0.93738401 1)
(0.34829801 -0.93738401 -1)
(0.32769501 -0.94478399 1)
(0.32769501 -0.94478399 -1)
(0.306934 -0.95173103 1)
(0.306934 -0.95173103 -1)
(0.286026 -0.95822197 1)
(0.286026 -0.95822197 -1)
(0.26498201 -0.96425301 1)
(0.26498201 -0.96425301 -1)
(0.24381 -0.969823 1)
(0.24381 -0.969823 -1)
(0.22252101 -0.97492802 1)
(0.22252101 -0.97492802 -1)
(0.20112599 -0.97956502 1)
(0.20112599 -0.97956502 -1)
(0.179634 -0.98373401 1)
(0.179634 -0.98373401 -1)
(0.15805601 -0.98742998 1)
(0.15805601 -0.98742998 -1)
(0.136402 -0.99065399 1)
(0.136402 -0.99065399 -1)
(0.114683 -0.993402 1)
(0.114683 -0.993402 -1)
(0.0929095 -0.99567503 1)
(0.0929095 -0.99567503 -1)
(0.071091004 -0.99747002 1)
(0.071091004 -0.99747002 -1)
(0.049238499 -0.99878699 1)
(0.049238499 -0.99878699 -1)
(0.027362401 -0.99962598 1)
(0.027362401 -0.99962598 -1)
(0.0054731299 -0.99998498 1)
(0.0054731299 -0.99998498 -1)
(-0.016418699 -0.999865 1)
(-0.016418699 -0.999865 -1)
(-0.038302701 -0.99926603 1)
(-0.038302701 -0.99926603 -1)
(-0.0601684 -0.99818802 1)
(-0.0601684 -0.99818802 -1)
(-0.082005203 -0.99663198 1)
(-0.082005203 -0.99663198 -1)
(-0.103803 -0.99459797 1)
(-0.103803 -0.99459797 -1)
(-0.12555 -0.99208701 1)
(-0.12555 -0.99208701 -1)
(-0.147238 -0.98910099 1)
(-0.147238 -0.98910099 -1)
(-0.168855 -0.985641 1)
(-0.168855 -0.985641 -1)
(-0.190391 -0.98170799 1)
(-0.190391 -0.98170799 -1)
(-0.211836 -0.977305 1)
(-0.211836 -0.977305 -1)
(-0.233179 -0.97243398 1)
(-0.233179 -0.97243398 -1)
(-0.25441101 -0.96709597 1)
(-0.25441101 -0.96709597 -1)
(-0.27552 -0.96129501 1)
(-0.27552 -0.96129501 -1)
(-0.296498 -0.955033 1)
(-0.296498 -0.955033 -1)
(-0.31733301 -0.94831401 1)
(-0.31733301 -0.94831401 -1)
(-0.33801699 -0.94114 1)
(-0.33801699 -0.94114 -1)
(-0.358538 -0.93351501 1)
(-0.358538 -0.93351501 -1)
(-0.37888801 -0.92544299 1)
(-0.37888801 -0.92544299 -1)
(-0.39905599 -0.91692698 1)
(-0.39905599 -0.91692698 -1)
(-0.41903201 -0.90797102 1)
(-0.41903201 -0.90797102 -1)
(-0.43880799 -0.89858103 1)
(-0.43880799 -0.89858103 -1)
(-0.45837399 -0.88875902 1)
(-0.45837399 -0.88875902 -1)
(-0.47771999 -0.87851202 1)
(-0.47771999 -0.87851202 -1)
(-0.49683699 -0.86784399 1)
(-0.49683699 -0.86784399 -1)
(-0.51571602 -0.85676003 1)
(-0.51571602 -0.85676003 -1)
(-0.534347 -0.84526497 1)
(-0.534347 -0.84526497 -1)
(-0.55272299 -0.83336502 1)
(-0.55272299 -0.83336502 -1)
(-0.57083303 -0.82106602 1)
(-0.57083303 -0.82106602 -1)
(-0.58867002 -0.80837297 1)
(-0.58867002 -0.80837297 -1)
(-0.60622501 -0.79529297 1)
(-0.60622501 -0.79529297 -1)
(-0.62348998 -0.78183198 1)
(-0.62348998 -0.78183198 -1)
(-0.64045501 -0.767995 1)
(-0.64045501 -0.767995 -1)
(-0.65711403 -0.75379097 1)
(-0.65711403 -0.75379097 -1)
(-0.67345798 -0.73922598 1)
(-0.67345798 -0.73922598 -1)
(-0.68947899 -0.72430599 1)
(-0.68947899 -0.72430599 -1)
(-0.70516902 -0.70903897 1)
(-0.70516902 -0.70903897 -1)
(-0.72052199 -0.69343299 1)
(-0.72052199 -0.69343299 -1)
(-0.73552901 -0.67749298 1)
(-0.73552901 -0.67749298 -1)
(-0.75018299 -0.66123003 1)
(-0.75018299 -0.66123003 -1)
(-0.76447898 -0.64464903 1)
(-0.76447898 -0.64464903 -1)
(-0.77840698 -0.62775999 1)
(-0.77840698 -0.62775999 -1)
(-0.79196298 -0.610569 1)
(-0.79196298 -0.610569 -1)
(-0.80513901 -0.593086 1)
(-0.80513901 -0.593086 -1)
(-0.81792903 -0.57531899 1)
(-0.81792903 -0.57531899 -1)
(-0.83032799 -0.55727601 1)
(-0.83032799 -0.55727601 -1)
(-0.84232801 -0.53896499 1)
(-0.84232801 -0.53896499 -1)
(-0.85392398 -0.52039701 1)
(-0.85392398 -0.52039701 -1)
(-0.86511201 -0.50157899 1)
(-0.86511201 -0.50157899 -1)
(-0.875884 -0.482521 1)
(-0.875884 -0.482521 -1)
(-0.88623703 -0.463231 1)
(-0.88623703 -0.463231 -1)
(-0.89616603 -0.44372001 1)
(-0.89616603 -0.44372001 -1)
(-0.90566403 -0.423996 1)
(-0.90566403 -0.423996 -1)
(-0.914729 -0.40406799 1)
(-0.914729 -0.40406799 -1)
(-0.92335498 -0.38394701 1)
(-0.92335498 -0.38394701 -1)
(-0.931539 -0.36364201 1)
(-0.931539 -0.36364201 -1)
(-0.93927598 -0.34316301 1)
(-0.93927598 -0.34316301 -1)
(-0.94656301 -0.322519 1)
(-0.94656301 -0.322519 -1)
(-0.95339602 -0.30172101 1)
(-0.95339602 -0.30172101 -1)
(-0.959773 -0.28077799 1)
(-0.959773 -0.28077799 -1)
(-0.965689 -0.2597 1)
(-0.965689 -0.2597 -1)
(-0.97114301 -0.238498 1)
(-0.97114301 -0.238498 -1)
(-0.97613102 -0.217182 1)
(-0.97613102 -0.217182 -1)
(-0.98065197 -0.195761 1)
(-0.98065197 -0.195761 -1)
(-0.98470199 -0.174247 1)
(-0.98470199 -0.174247 -1)
(-0.98828 -0.152649 1)
(-0.98828 -0.152649 -1)
(-0.99138498 -0.130978 1)
(-0.99138498 -0.130978 -1)
(-0.99401498 -0.109245 1)
(-0.99401498 -0.109245 -1)
(-0.99616802 -0.087458603 1)
(-0.99616802 -0.087458603 -1)
(-0.99784398 -0.065630697 1)
(-0.99784398 -0.065630697 -1)
(-0.99904197 -0.0437713 1)
(-0.99904197 -0.0437713 -1)
(-0.99975997 -0.021890899 1)
(-0.99975997 -0.021890899 -1)
(-1 6.1232303e-17 1)
(-1 6.1232303e-17 -1)
(-0.99975997 0.021890899 1)
(-0.99975997 0.021890899 -1)
(-0.99904197 0.0437713 1)
(-0.99904197 0.0437713 -1)
(-0.99784398 0.065630697 1)
(-0.99784398 0.065630697 -1)
(-0.99616802 0.087458603 1)
(-0.99616802 0.087458603 -1)
(-0.99401498 0.109245 1)
(-0.99401498 0.109245 -1)
(-0.99138498 0.130978 1)
(-0.99138498 0.130978 -1)
(-0.98828 0.152649 1)
(-0.98828 0.152649 -1)
(-0.98470199 0.174247 1)
(-0.98470199 0.174247 -1)
(-0.98065197 0.195761 1)
(-0.98065197 0.195761 -1)
(-0.97613102 0.217182 1)
(-0.97613102 0.217182 -1)
(-0.97114301 0.238498 1)
(-0.97114301 0.238498 -1)
(-0.965689 0.2597 1)
(-0.965689 0.2597 -1)
(-0.959773 0.28077799 1)
(-0.959773 0.28077799 -1)
(-0.95339602 0.30172101 1)
(-0.95339602 0.30172101 -1)
(-0.94656301 0.322519 1)
(-0.94656301 0.322519 -1)
(-0.93927598 0.34316301 1)
(-0.93927598 0.34316301 -1)
(-0.931539 0.36364201 1)
(-0.931539 0.36364201 -1)
(-0.92335498 0.38394701 1)
(-0.92335498 0.38394701 -1)
(-0.914729 0.40406799 1)
(-0.914729 0.40406799 -1)
(-0.90566403 0.423996 1)
(-0.90566403 0.423996 -1)
(-0.89616603 0.44372001 1)
(-0.89616603 0.44372001 -1)
(-0.88623703 0.463231 1)
(-0.88623703 0.463231 -1)
(-0.875884 0.482521 1)
(-0.875884 0.482521 -1)
(-0.86511201 0.50157899 1)
(-0.86511201 0.50157899 -1)
(-0.85392398 0.52039701 1)
(-0.85392398 0.52039701 -1)
(-0.84232801 0.53896499 1)
(-0.84232801 0.53896499 -1)
(-0.83032799 0.55727601 1)
(-0.83032799 0.55727601 -1)
(-0.81792903 0.57531899 1)
(-0.81792903 0.57531899 -1)
(-0.80513901 0.593086 1)
(-0.80513901 0.593086 -1)
(-0.79196298 0.610569 1)
(-0.79196298 0.610569 -1)
(-0.77840698 0.62775999 1)
(-0.77840698 0.62775999 -1)
(-0.76447898 0.64464903 1)
(-0.76447898 0.64464903 -1)
(-0.75018299 0.66123003 1)
(-0.75018299 0.66123003 -1)
(-0.73552901 0.67749298 1)
(-0.73552901 0.67749298 -1)
(-0.72052199 0.69343299 1)
(-0.72052199 0.69343299 -1)
(-0.70516902 0.70903897 1)
(-0.70516902 0.70903897 -1)
(-0.68947899 0.72430599 1)
(-0.68947899 0.72430599 -1)
(-0.67345798 0.73922598 1)
(-0.67345798 0.73922598 -1)
(-0.65711403 0.75379097 1)
(-0.65711403 0.75379097 -1)
(-0.64045501 0.767995 1)
(-0.64045501 0.767995 -1)
(-0.62348998 0.78183198 1)
(-0.62348998 0.78183198 -1)
(-0.60622501 0.79529297 1)
(-0.60622501 0.79529297 -1)
(-0.58867002 0.80837297 1)
(-0.58867002 0.80837297 -1)
(-0.57083303 0.82106602 1)
(-0.57083303 0.82106602 -1)
(-0.55272299 0.83336502 1)
(-0.55272299 0.83336502 -1)
(-0.534347 0.84526497 1)
(-0.534347 0.84526497 -1)
(-0.51571602 0.85676003 1)
(-0.51571602 0.85676003 -1)
(-0.49683699 0.86784399 1)
(-0.49683699 0.86784399 -1)
(-0.47771999 0.87851202 1)
(-0.47771999 0.87851202 -1)
(-0.45837399 0.88875902 1)
(-0.45837399 0.88875902 -1)
(-0.43880799 0.89858103 1)
(-0.43880799 0.89858103 -1)
(-0.41903201 0.90797102 1)
(-0.41903201 0.90797102 -1)
(-0.39905599 0.91692698 1)
(-0.39905599 0.91692698 -1)
(-0.37888801 0.92544299 1)
(-0.37888801 0.92544299 -1)
(-0.358538 0.93351501 1)
(-0.358538 0.93351501 -1)
(-0.33801699 0.94114 1)
(-0.33801699 0.94114 -1)
(-0.31733301 0.94831401 1)
(-0.31733301 0.94831401 -1)
(-0.296498 0.955033 1)
(-0.296498 0.955033 -1)
(-0.27552 0.96129501 1)
(-0.27552 0.96129501 -1)
(-0.25441101 0.96709597 1)
(-0.25441101 0.96709597 -1)
(-0.233179 0.97243398 1)
(-0.233179 0.97243398 -1)
(-0.211836 0.977305 1)
(-0.211836 0.977305 -1)
(-0.190391 0.98170799 1)
(-0.190391 0.98170799 -1)
(-0.168855 0.985641 1)
(-0.168855 0.985641 -1)
(-0.147238 0.98910099 1)
(-0.147238 0.98910099 -1)
(-0.12555 0.99208701 1)
(-0.12555 0.99208701 -1)
(-0.103803 0.99459797 1)
(-0.103803 0.99459797 -1)
(-0.082005203 0.99663198 1)
(-0.082005203 0.99663198 -1)
(-0.0601684 0.99818802 1)
(-0.0601684 0.99818802 -1)
(-0.038302701 0.99926603 1)
(-0.038302701 0.99926603 -1)
(-0.016418699 0.999865 1)
(-0.016418699 0.999865 -1)
(0.0054731299 0.99998498 1)
(0.0054731299 0.99998498 -1)
(0.027362401 0.99962598 1)
(0.027362401 0.99962598 -1)
(0.049238499 0.99878699 1)
(0.049238499 0.99878699 -1)
(0.071091004 0.99747002 1)
(0.071091004 0.99747002 -1)
(0.0929095 0.99567503 1)
(0.0929095 0.99567503 -1)
(0.114683 0.993402 1)
(0.114683 0.993402 -1)
(0.136402 0.99065399 1)
(0.136402 0.99065399 -1)
(0.15805601 0.98742998 1)
(0.15805601 0.98742998 -1)
(0.179634 0.98373401 1)
(0.179634 0.98373401 -1)
(0.20112599 0.97956502 1)
(0.20112599 0.97956502 -1)
(0.22252101 0.97492802 1)
(0.22252101 0.97492802 -1)
(0.24381 0.969823 1)
(0.24381 0.969823 -1)
(0.26498201 0.96425301 1)
(0.26498201 0.96425301 -1)
(0.286026 0.95822197 1)
(0.286026 0.95822197 -1)
(0.306934 0.95173103 1)
(0.306934 0.95173103 -1)
(0.32769501 0.94478399 1)
(0.32769501 0.94478399 -1)
(0.34829801 0.93738401 1)
(0.34829801 0.93738401 -1)
(0.36873499 0.92953402 1)
(0.36873499 0.92953402 -1)
(0.38899499 0.92123997 1)
(0.38899499 0.92123997 -1)
(0.409069 0.91250402 1)
(0.409069 0.91250402 -1)
(0.42894599 0.90333003 1)
(0.42894599 0.90333003 -1)
(0.44861799 0.89372402 1)
(0.44861799 0.89372402 -1)
(0.46807501 0.88368899 1)
(0.46807501 0.88368899 -1)
(0.48730701 0.87322998 1)
(0.48730701 0.87322998 -1)
(0.50630599 0.86235398 1)
(0.50630599 0.86235398 -1)
(0.52506298 0.85106301 1)
(0.52506298 0.85106301 -1)
(0.54356802 0.83936501 1)
(0.54356802 0.83936501 -1)
(0.56181198 0.82726502 1)
(0.56181198 0.82726502 -1)
(0.57978702 0.81476802 1)
(0.57978702 0.81476802 -1)
(0.59748399 0.80188102 1)
(0.59748399 0.80188102 -1)
(0.61489397 0.78860903 1)
(0.61489397 0.78860903 -1)
(0.63200998 0.77495998 1)
(0.63200998 0.77495998 -1)
(0.64882398 0.760939 1)
(0.64882398 0.760939 -1)
(0.665326 0.746553 1)
(0.665326 0.746553 -1)
(0.68150902 0.73180997 1)
(0.68150902 0.73180997 -1)
(0.697366 0.71671599 1)
(0.697366 0.71671599 -1)
(0.712888 0.70127797 1)
(0.712888 0.70127797 -1)
(0.72806901 0.68550402 1)
(0.72806901 0.68550402 -1)
(0.74290103 0.669402 1)
(0.74290103 0.669402 -1)
(0.75737602 0.65297902 1)
(0.75737602 0.65297902 -1)
(0.77148902 0.63624197 1)
(0.77148902 0.63624197 -1)
(0.78523201 0.619201 1)
(0.78523201 0.619201 -1)
(0.798599 0.60186398 1)
(0.798599 0.60186398 -1)
(0.81158298 0.58423698 1)
(0.81158298 0.58423698 -1)
(0.82417798 0.56633103 1)
(0.82417798 0.56633103 -1)
(0.83637798 0.54815298 1)
(0.83637798 0.54815298 -1)
(0.84817702 0.52971298 1)
(0.84817702 0.52971298 -1)
(0.85957003 0.51101899 1)
(0.85957003 0.51101899 -1)
(0.87054998 0.49207899 1)
(0.87054998 0.49207899 -1)
(0.88111401 0.472904 1)
(0.88111401 0.472904 -1)
(0.89125502 0.45350301 1)
(0.89125502 0.45350301 -1)
(0.90096903 0.43388399 1)
(0.90096903 0.43388399 -1)
(0.91025102 0.41405699 1)
(0.91025102 0.41405699 -1)
(0.91909701 0.39403099 1)
(0.91909701 0.39403099 -1)
(0.92750198 0.373817 1)
(0.92750198 0.373817 -1)
(0.93546301 0.35342401 1)
(0.93546301 0.35342401 -1)
(0.942976 0.33286101 1)
(0.942976 0.33286101 -1)
(0.950037 0.31213799 1)
(0.950037 0.31213799 -1)
(0.95664197 0.29126701 1)
(0.95664197 0.29126701 -1)
(0.962789 0.270255 1)
(0.962789 0.270255 -1)
(0.96847397 0.24911401 1)
(0.96847397 0.24911401 -1)
(0.97369498 0.227854 1)
(0.97369498 0.227854 -1)
(0.97845 0.206484 1)
(0.97845 0.206484 -1)
(0.98273599 0.18501499 1)
(0.98273599 0.18501499 -1)
(0.98654997 0.163458 1)
(0.98654997 0.163458 -1)
(0.98989201 0.141822 1)
(0.98989201 0.141822 -1)
(0.99276 0.120119 1)
(0.99276 0.120119 -1)
(0.99515098 0.098357603 1)
(0.99515098 0.098357603 -1)
(0.99706602 0.076549299 1)
(0.99706602 0.076549299 -1)
(0.99850303 0.054704301 1)
(0.99850303 0.054704301 -1)
(0.999461 0.032832999 1)
(0.999461 0.032832999 -1)
(0.99993998 0.0109461 -1)
(0.99975997 -0.021890899 -1)
(0.99975997 0.021890899 -1)
(0.99616802 0.087458603 -1)
(0.99784398 0.065630697 -1)
(0.99904197 0.0437713 -1)
(0.98828 0.152649 -1)
(0.99138498 0.130978 -1)
(0.99401498 0.109245 -1)
(0.97613102 0.217182 -1)
(0.98065197 0.195761 -1)
(0.98470199 0.174247 -1)
(0.959773 0.28077799 -1)
(0.965689 0.2597 -1)
(0.97114301 0.238498 -1)
(0.93927598 0.34316301 -1)
(0.94656301 0.322519 -1)
(0.95339602 0.30172101 -1)
(0.914729 0.40406799 -1)
(0.92335498 0.38394701 -1)
(0.931539 0.36364201 -1)
(0.88623703 0.463231 -1)
(0.89616603 0.44372001 -1)
(0.90566403 0.423996 -1)
(0.85392398 0.52039701 -1)
(0.86511201 0.50157899 -1)
(0.875884 0.482521 -1)
(0.81792903 0.57531899 -1)
(0.83032799 0.55727601 -1)
(0.84232801 0.53896499 -1)
(0.77840698 0.62775999 -1)
(0.79196298 0.610569 -1)
(0.80513901 0.593086 -1)
(0.73552901 0.67749298 -1)
(0.75018299 0.66123003 -1)
(0.76447898 0.64464903 -1)
(0.68947899 0.72430599 -1)
(0.70516902 0.70903897 -1)
(0.72052199 0.69343299 -1)
(0.64045501 0.767995 -1)
(0.65711403 0.75379097 -1)
(0.67345798 0.73922598 -1)
(0.58867002 0.80837297 -1)
(0.60622501 0.79529297 -1)
(0.62348998 0.78183198 -1)
(0.534347 0.84526497 -1)
(0.55272299 0.83336502 -1)
(0.57083303 0.82106602 -1)
(0.47771999 0.87851202 -1)
(0.49683699 0.86784399 -1)
(0.51571602 0.85676003 -1)
(0.41903201 0.90797102 -1)
(0.43880799 0.89858103 -1)
(0.45837399 0.88875902 -1)
(0.358538 0.93351501 -1)
(0.37888801 0.92544299 -1)
(0.39905599 0.91692698 -1)
(0.296498 0.955033 -1)
(0.31733301 0.94831401 -1)
(0.33801699 0.94114 -1)
(0.233179 0.97243398 -1)
(0.25441101 0.96709597 -1)
(0.27552 0.96129501 -1)
(0.168855 0.985641 -1)
(0.190391 0.98170799 -1)
(0.211836 0.977305 -1)
(0.103803 0.99459797 -1)
(0.12555 0.99208701 -1)
(0.147238 0.98910099 -1)
(0.038302701 0.99926603 -1)
(0.0601684 0.99818802 -1)
(0.082005203 0.99663198 -1)
(-0.027362401 0.99962598 -1)
(-0.0054731299 0.99998498 -1)
(0.016418699 0.999865 -1)
(-0.0929095 0.99567503 -1)
(-0.071091004 0.99747002 -1)
(-0.049238499 0.99878699 -1)
(-0.15805601 0.98742998 -1)
(-0.136402 0.99065399 -1)
(-0.114683 0.993402 -1)
(-0.22252101 0.97492802 -1)
(-0.20112599 0.97956502 -1)
(-0.179634 0.98373401 -1)
(-0.286026 0.95822197 -1)
(-0.26498201 0.96425301 -1)
(-0.24381 0.969823 -1)
(-0.34829801 0.93738401 -1)
(-0.32769501 0.94478399 -1)
(-0.306934 0.95173103 -1)
(-0.409069 0.91250402 -1)
(-0.38899499 0.92123997 -1)
(-0.36873499 0.92953402 -1)
(-0.46807501 0.88368899 -1)
(-0.44861799 0.89372402 -1)
(-0.42894599 0.90333003 -1)
(-0.52506298 0.85106301 -1)
(-0.50630599 0.86235398 -1)
(-0.48730701 0.87322998 -1)
(-0.57978702 0.81476802 -1)
(-0.56181198 0.82726502 -1)
(-0.54356802 0.83936501 -1)
(-0.63200998 0.77495998 -1)
(-0.61489397 0.78860903 -1)
(-0.59748399 0.80188102 -1)
(-0.68150902 0.73180997 -1)
(-0.665326 0.746553 -1)
(-0.64882398 0.760939 -1)
(-0.72806901 0.68550402 -1)
(-0.712888 0.70127797 -1)
(-0.697366 0.71671599 -1)
(-0.77148902 0.63624197 -1)
(-0.75737602 0.65297902 -1)
(-0.74290103 0.669402 -1)
(-0.81158298 0.58423698 -1)
(-0.798599 0.60186398 -1)
(-0.78523201 0.619201 -1)
(-0.84817702 0.52971298 -1)
(-0.83637798 0.54815298 -1)
(-0.82417798 0.56633103 -1)
(-0.88111401 0.472904 -1)
(-0.87054998 0.49207899 -1)
(-0.85957003 0.51101899 -1)
(-0.91025102 0.41405699 -1)
(-0.90096903 0.43388399 -1)
(-0.89125502 0.45350301 -1)
(-0.93546301 0.35342401 -1)
(-0.92750198 0.373817 -1)
(-0.91909701 0.39403099 -1)
(-0.95664197 0.29126701 -1)
(-0.950037 0.31213799 -1)
(-0.942976 0.33286101 -1)
(-0.97369498 0.227854 -1)
(-0.96847397 0.24911401 -1)
(-0.962789 0.270255 -1)
(-0.98654997 0.163458 -1)
(-0.98273599 0.18501499 -1)
(-0.97845 0.206484 -1)
(-0.99515098 0.098357603 -1)
(-0.99276 0.120119 -1)
(-0.98989201 0.141822 -1)
(-0.999461 0.032832999 -1)
(-0.99850303 0.054704301 -1)
(-0.99706602 0.076549299 -1)
(-0.999461 -0.032832999 -1)
(-0.99993998 -0.0109461 -1)
(-0.99993998 0.0109461 -1)
(-0.99515098 -0.098357603 -1)
(-0.99706602 -0.076549299 -1)
(-0.99850303 -0.054704301 -1)
(-0.98654997 -0.163458 -1)
(-0.98989201 -0.141822 -1)
(-0.99276 -0.120119 -1)
(-0.97369498 -0.227854 -1)
(-0.97845 -0.206484 -1)
(-0.98273599 -0.18501499 -1)
(-0.95664197 -0.29126701 -1)
(-0.962789 -0.270255 -1)
(-0.96847397 -0.24911401 -1)
(-0.93546301 -0.35342401 -1)
(-0.942976 -0.33286101 -1)
(-0.950037 -0.31213799 -1)
(-0.91025102 -0.41405699 -1)
(-0.91909701 -0.39403099 -1)
(-0.92750198 -0.373817 -1)
(-0.88111401 -0.472904 -1)
(-0.89125502 -0.45350301 -1)
(-0.90096903 -0.43388399 -1)
(-0.84817702 -0.52971298 -1)
(-0.85957003 -0.51101899 -1)
(-0.87054998 -0.49207899 -1)
(-0.81158298 -0.58423698 -1)
(-0.82417798 -0.56633103 -1)
(-0.83637798 -0.54815298 -1)
(-0.77148902 -0.63624197 -1)
(-0.78523201 -0.619201 -1)
(-0.798599 -0.60186398 -1)
(-0.72806901 -0.68550402 -1)
(-0.74290103 -0.669402 -1)
(-0.75737602 -0.65297902 -1)
(-0.68150902 -0.73180997 -1)
(-0.697366 -0.71671599 -1)
(-0.712888 -0.70127797 -1)
(-0.63200998 -0.77495998 -1)
(-0.64882398 -0.760939 -1)
(-0.665326 -0.746553 -1)
(-0.57978702 -0.81476802 -1)
(-0.59748399 -0.80188102 -1)
(-0.61489397 -0.78860903 -1)
(-0.52506298 -0.85106301 -1)
(-0.54356802 -0.83936501 -1)
(-0.56181198 -0.82726502 -1)
(-0.46807501 -0.88368899 -1)
(-0.48730701 -0.87322998 -1)
(-0.50630599 -0.86235398 -1)
(-0.409069 -0.91250402 -1)
(-0.42894599 -0.90333003 -1)
(-0.44861799 -0.89372402 -1)
(-0.34829801 -0.93738401 -1)
(-0.36873499 -0.92953402 -1)
(-0.38899499 -0.92123997 -1)
(-0.286026 -0.95822197 -1)
(-0.306934 -0.95173103 -1)
(-0.32769501 -0.94478399 -1)
(-0.22252101 -0.97492802 -1)
(-0.24381 -0.969823 -1)
(-0.26498201 -0.96425301 -1)
(-0.15805601 -0.98742998 -1)
(-0.179634 -0.98373401 -1)
(-0.20112599 -0.97956502 -1)
(-0.0929095 -0.99567503 -1)
(-0.114683 -0.993402 -1)
(-0.136402 -0.99065399 -1)
(-0.027362401 -0.99962598 -1)
(-0.049238499 -0.99878699 -1)
(-0.071091004 -0.99747002 -1)
(0.038302701 -0.99926603 -1)
(0.016418699 -0.999865 -1)
(-0.0054731299 -0.99998498 -1)
(0.103803 -0.99459797 -1)
(0.082005203 -0.99663198 -1)
(0.0601684 -0.99818802 -1)
(0.168855 -0.985641 -1)
(0.147238 -0.98910099 -1)
(0.12555 -0.99208701 -1)
(0.233179 -0.97243398 -1)
(0.211836 -0.977305 -1)
(0.190391 -0.98170799 -1)
(0.296498 -0.955033 -1)
(0.27552 -0.96129501 -1)
(0.25441101 -0.96709597 -1)
(0.358538 -0.93351501 -1)
(0.33801699 -0.94114 -1)
(0.31733301 -0.94831401 -1)
(0.41903201 -0.90797102 -1)
(0.39905599 -0.91692698 -1)
(0.37888801 -0.92544299 -1)
(0.47771999 -0.87851202 -1)
(0.45837399 -0.88875902 -1)
(0.43880799 -0.89858103 -1)
(0.534347 -0.84526497 -1)
(0.51571602 -0.85676003 -1)
(0.49683699 -0.86784399 -1)
(0.58867002 -0.80837297 -1)
(0.57083303 -0.82106602 -1)