/*--------------------------------*- C++ -*----------------------------------*\
  =========                 |				
  \\      /  F ield         | OpenFOAM: The Open Source CFD Toolbox
   \\    /   O peration     | Website:  https://openfoam.org
    \\  /    A nd           | Version:  9                                   	
     \\/     M anipulation  |
\*---------------------------------------------------------------------------*/
FoamFile
{
    format      ascii;
    class       extendedFeatureEdgeMesh;
    object      trimesh.extendedFeatureEdgeMesh;
}
// * * * * * * * * * * * * * * * * * * * * * * * * * * * * * * * * * * * * * //

// points

250
(
(-0.61780322 -0.78633279 -1)
(-0.57748932 -0.81639826 -1)
(0.80917794 -0.58756369 1)
(0.77862751 -0.62748641 1)
(-0.1135125 0.99353659 -1)
(-0.16333281 0.98657101 -1)
(0.42541522 0.9049983 -1)
(0.37950644 0.92518908 -1)
(0.74572897 0.66624945 1)
(0.77825153 0.62795264 1)
(0.28457379 0.95865411 1)
(0.33240825 0.94313562 1)
(-0.30939516 0.95093358 1)
(-0.26123664 0.96527481 1)
(0.13823447 -0.99039954 -1)
(0.1877398 -0.9822188 -1)
(0.18716051 0.98232937 1)
(0.23611918 0.97172409 1)
(0.55656898 0.83080137 -1)
(0.51420939 0.85766464 -1)
(0.98446929 0.17555699 -1)
(0.97444659 0.22461942 -1)
(-0.97994602 0.19926329 1)
(-0.96873212 0.24810907 1)
(-0.97982746 -0.19984537 -1)
(-0.96858424 -0.24868558 -1)
(-0.44876459 0.89365 -1)
(-0.49319434 0.86991912 -1)
(0.71126008 0.7029289 1)
(-0.16274966 -0.98666739 -1)
(-0.11292286 -0.99360377 -1)
(0.90996975 0.41467464 1)
(0.92962718 0.36850137 1)
(-0.6569308 0.75395089 1)
(-0.61826837 0.78596711 1)
(0.86400914 -0.50347608 1)
(0.83767533 -0.54616851 1)
(0.67505646 0.73776609 -1)
(0.63712478 0.77076066 -1)
(-0.21252391 0.97715586 -1)
(-0.26123664 0.96527481 -1)
(0.88828278 -0.45929697 1)
(-0.6936307 -0.72033083 -1)
(-0.65648437 -0.75433964 -1)
(0.98457378 -0.17496994 1)
(0.97458053 -0.22403738 1)
(-0.87629402 -0.48177674 1)
(-0.89940768 -0.43711078 1)
(0.28457379 0.95865411 -1)
(0.23611918 0.97172409 -1)
(0.91021621 -0.41413343 -1)
(0.92984807 -0.36794364 -1)
(-0.16274966 -0.98666739 1)
(-0.21194737 -0.97728109 1)
(0.80882609 0.58804786 -1)
(0.77825153 0.62795264 -1)
(-0.79396516 -0.60796326 1)
(-0.82352263 -0.56728339 1)
(-0.7293092 0.68418425 -1)
(-0.76282847 0.6466009 -1)
(-0.79432666 0.6074909 -1)
(-0.82386047 0.56679261 -1)
(-0.93872762 -0.34465989 1)
(-0.95487821 -0.2969977 1)
(-0.35632238 -0.93436307 1)
(-0.40282741 -0.91527593 1)
(-0.26066616 -0.96542901 1)
(-0.30883175 -0.95111668 1)
(-0.96873212 0.24810907 -1)
(-0.97994602 0.19926329 -1)
(-0.96858424 -0.24868558 1)
(-0.97982746 -0.19984537 1)
(0.9621197 -0.27262741 -1)
(0.97458053 -0.22403738 -1)
(0.92984807 -0.36794364 1)
(0.91021621 -0.41413343 1)
(0.88828278 -0.45929697 -1)
(0.77862751 -0.62748641 -1)
(0.80917794 -0.58756369 -1)
(-0.012409477 -0.99992299 -1)
(0.03790497 -0.99928135 -1)
(0.63712478 0.77076066 1)
(0.67505646 0.73776609 1)
(-0.92018735 -0.39147833 1)
(0.96195632 0.27320322 1)
(0.97444659 0.22461942 1)
(0.71168077 -0.70250303 -1)
(0.74612969 -0.66580063 -1)
(-0.35632238 -0.93436307 -1)
(-0.30883175 -0.95111668 -1)
(-0.062723607 -0.99803096 1)
(-0.11292286 -0.99360377 1)
(0.94701004 0.32120404 -1)
(0.92962718 0.36850137 -1)
(-0.93872762 -0.34465989 -1)
(-0.92018735 -0.39147833 -1)
(-0.93893349 0.34409863 1)
(-0.92041981 0.39093146 1)
(-0.85126144 0.52474183 1)
(-0.82386047 0.56679261 1)
(-0.85094994 -0.52524674 -1)
(-0.82352263 -0.56728339 -1)
(0.83767533 -0.54616851 -1)
(0.86400914 -0.50347608 -1)
(-0.93893349 0.34409863 -1)
(-0.95505524 0.29642797 -1)
(0.71168077 -0.70250303 1)
(0.67549872 -0.73736113 1)
(0.38005364 -0.92496443 1)
(0.33296666 -0.94293863 1)
(0.47086364 -0.88220602 -1)
(0.51471651 -0.85736042 -1)
(0.23669307 -0.9715845 -1)
(0.28514093 -0.9584856 -1)
(-0.012409477 -0.99992299 1)
(0.38005364 -0.92496443 -1)
(0.42594993 -0.90474671 -1)
(0.99204433 0.12588923 1)
(0.99712652 0.075754344 1)
(0.1877398 -0.9822188 1)
(0.13823447 -0.99039954 1)
(0.63758188 -0.77038258 1)
(0.59809262 -0.80142701 1)
(0.99969107 -0.024854543 1)
(0.99717182 -0.075155862 1)
(0.42594993 -0.90474671 1)
(0.088181965 -0.99610436 -1)
(-0.5362612 0.84405208 -1)
(-0.57797354 0.81605548 -1)
(-0.013001966 0.99991548 -1)
(-0.063315697 0.99799353 -1)
(-0.95505524 0.29642797 1)
(-0.6569308 0.75395089 -1)
(-0.69405597 0.71992099 -1)
(-0.95487821 -0.2969977 -1)
(-0.49267578 -0.87021291 -1)
(-0.4482339 -0.89391631 -1)
(-0.40282741 -0.91527593 -1)
(0.98446929 0.17555699 1)
(-0.40336934 0.91503727 -1)
(0.087590888 0.99615651 -1)
(0.037312441 0.99930364 -1)
(0.47086364 -0.88220602 1)
(-0.76244515 -0.64705288 1)
(0.94720238 -0.32063624 -1)
(0.18716051 0.98232937 -1)
(0.13764763 0.99048126 -1)
(0.59809262 -0.80142701 -1)
(0.63758188 -0.77038258 -1)
(-0.16333281 0.98657101 1)
(-0.1135125 0.99353659 1)
(0.94720238 -0.32063624 1)
(0.74572897 0.66624945 -1)
(0.13764763 0.99048126 1)
(0.99967599 0.025453791 1)
(-0.5362612 0.84405208 1)
(-0.49319434 0.86991912 1)
(0.99211961 -0.12529421 1)
(-0.57748932 -0.81639826 1)
(-0.61780322 -0.78633279 1)
(0.80882609 0.58804786 1)
(0.83734852 0.54666942 1)
(0.67549872 -0.73736113 -1)
(-0.4482339 -0.89391631 1)
(0.99967599 0.025453791 -1)
(0.99712652 0.075754344 -1)
(-0.79432666 0.6074909 1)
(-0.79396516 -0.60796326 -1)
(0.99204433 0.12588923 -1)
(-0.99499094 0.099964835 1)
(-0.98869795 0.14992112 1)
(-0.99493086 -0.10056134 -1)
(-0.98860818 -0.15051213 -1)
(0.74612969 -0.66580063 1)
(0.28514093 -0.9584856 1)
(0.23669307 -0.9715845 1)
(-0.98860818 -0.15051213 1)
(-0.99493086 -0.10056134 1)
(-0.98869795 0.14992112 -1)
(-0.99499094 0.099964835 -1)
(0.088181965 -0.99610436 1)
(0.88800895 0.45982614 1)
(0.55705935 -0.83047271 -1)
(-0.063315697 0.99799353 1)
(0.33296666 -0.94293863 -1)
(0.55705935 -0.83047271 1)
(0.90996975 0.41467464 -1)
(-0.92041981 0.39093146 -1)
(-0.87629402 -0.48177674 -1)
(-0.87658244 0.48125169 1)
(-0.21194737 -0.97728109 -1)
(0.98457378 -0.17496994 -1)
(0.03790497 -0.99928135 1)
(0.99969107 -0.024854543 -1)
(0.9621197 -0.27262741 1)
(-0.013001966 0.99991548 1)
(0.42541522 0.9049983 1)
(0.47034004 0.88248527 1)
(-0.76244515 -0.64705288 -1)
(-0.7289027 -0.68461728 -1)
(-0.76282847 0.6466009 1)
(-0.7293092 0.68418425 1)
(-0.57797354 0.81605548 1)
(-0.21252391 0.97715586 1)
(-0.85126144 0.52474183 -1)
(-0.87658244 0.48125169 -1)
(-0.53576159 -0.84436929 -1)
(0.71126008 0.7029289 -1)
(-0.69405597 0.71992099 1)
(-0.30939516 0.95093358 -1)
(-0.35687816 0.93415093 -1)
(0.59761763 0.80178124 -1)
(0.47034004 0.88248527 -1)
(0.037312441 0.99930364 1)
(0.087590888 0.99615651 1)
(-0.062723607 -0.99803096 -1)
(-0.40336934 0.91503727 1)
(-0.35687816 0.93415093 1)
(0.96195632 0.27320322 -1)
(0.94701004 0.32120404 1)
(-0.61826837 0.78596711 -1)
(-0.49267578 -0.87021291 1)
(-0.53576159 -0.84436929 1)
(0.37950644 0.92518908 1)
(-0.89940768 -0.43711078 -1)
(-0.89966816 0.43657437 1)
(0.88800895 0.45982614 -1)
(0.86370826 0.50399208 -1)
(-0.85094994 -0.52524674 1)
(-0.89966816 0.43657437 -1)
(0.86370826 0.50399208 1)
(-0.99873334 -0.050316095 1)
(-1 3.6739403e-16 1)
(-0.99876332 0.049717769 -1)
(-1 3.6739403e-16 -1)
(0.51420939 0.85766464 1)
(0.51471651 -0.85736042 1)
(-0.6936307 -0.72033083 1)
(-0.7289027 -0.68461728 1)
(-0.99876332 0.049717769 1)
(-0.99873334 -0.050316095 -1)
(0.33240825 0.94313562 -1)
(0.99717182 -0.075155862 -1)
(0.83734852 0.54666942 -1)
(-0.65648437 -0.75433964 1)
(-0.26066616 -0.96542901 -1)
(0.99211961 -0.12529421 -1)
(-0.44876459 0.89365 1)
(0.55656898 0.83080137 1)
(0.59761763 0.80178124 1)
)

// edges

250
(
(0 1)
(2 3)
(4 5)
(6 7)
(8 9)
(10 11)
(12 13)
(14 15)
(16 17)
(18 19)
(20 21)
(22 23)
(24 25)
(26 27)
(28 8)
(29 30)
(31 32)
(33 34)
(35 36)
(37 38)
(39 40)
(41 35)
(42 43)
(44 45)
(46 47)
(48 49)
(50 51)
(52 53)
(54 55)
(56 57)
(58 59)
(60 61)
(62 63)
(64 65)
(66 67)
(68 69)
(70 71)
(72 73)
(74 75)
(76 50)
(77 78)
(79 80)
(81 82)
(82 28)
(83 62)
(84 85)
(86 87)
(88 89)
(90 91)
(92 93)
(94 95)
(96 97)
(98 99)
(100 101)
(102 103)
(104 105)
(106 107)
(108 109)
(110 111)
(112 113)
(114 90)
(115 116)
(117 118)
(119 120)
(121 122)
(123 124)
(125 108)
(80 126)
(127 128)
(27 127)
(129 130)
(23 131)
(132 133)
(25 134)
(135 136)
(136 137)
(138 117)
(139 26)
(140 141)
(142 125)
(143 56)
(144 72)
(145 146)
(134 94)
(131 96)
(147 148)
(149 150)
(151 74)
(78 102)
(55 152)
(153 16)
(154 123)
(155 156)
(157 44)
(158 159)
(160 161)
(162 86)
(133 58)
(65 163)
(164 165)
(5 39)
(99 166)
(101 167)
(168 20)
(9 160)
(169 170)
(171 172)
(43 0)
(3 173)
(47 83)
(174 175)
(175 119)
(71 176)
(176 177)
(69 178)
(178 179)
(67 64)
(120 180)
(53 66)
(146 140)
(181 31)
(91 52)
(59 60)
(182 147)
(150 183)
(184 115)
(113 184)
(17 10)
(130 4)
(122 185)
(93 186)
(187 104)
(188 100)
(189 98)
(173 106)
(51 144)
(107 121)
(124 157)
(190 29)
(126 14)
(73 191)
(103 76)
(148 162)
(116 110)
(141 129)
(85 138)
(180 192)
(193 164)
(118 154)
(105 68)
(45 194)
(183 195)
(196 197)
(15 112)
(198 199)
(200 201)
(165 168)
(34 202)
(203 149)
(61 204)
(36 2)
(204 205)
(206 135)
(207 37)
(172 24)
(170 22)
(201 208)
(209 210)
(211 18)
(212 6)
(213 214)
(215 79)
(199 42)
(216 217)
(21 218)
(32 219)
(220 132)
(221 222)
(222 158)
(11 223)
(95 224)
(97 225)
(226 227)
(228 46)
(19 212)
(205 229)
(229 187)
(75 41)
(161 230)
(194 151)
(49 145)
(231 232)
(177 231)
(179 233)
(233 234)
(111 182)
(109 174)
(1 206)
(163 221)
(210 139)
(38 211)
(40 209)
(197 235)
(30 215)
(185 236)
(237 238)
(57 228)
(192 114)
(208 33)
(239 169)
(13 203)
(240 171)
(128 220)
(238 143)
(241 48)
(63 70)
(230 181)
(87 77)
(7 241)
(242 193)
(243 54)
(227 243)
(218 92)
(244 237)
(159 244)
(219 84)
(236 142)
(186 226)
(245 190)
(214 153)
(246 242)
(224 188)
(195 213)
(225 189)
(217 12)
(152 207)
(223 196)
(247 216)
(166 200)
(167 198)
(191 246)
(89 245)
(202 155)
(156 247)
(235 248)
(248 249)
(249 81)
(137 88)
(232 239)
(234 240)
)

// concaveStart mixedStart nonFeatureStart
0 0 0
// internalStart flatStart openStart multipleStart
250 250 250 250
// normals

500
(
(-0.59782553 -0.80160639 -0.0056409946)
(0 0 -1)
(0.79414396 -0.60770997 0.0048951869)
(0 0 1)
(-0.13846565 0.99035588 -0.004743292)
(0 0 -1)
(0.40257847 0.91536286 -0.0064353648)
(0 -0 -1)
(0.76221746 0.64729299 0.0060277862)
(0 0 1)
(0.30858173 0.95117776 0.0061785329)
(0 0 1)
(-0.28540147 0.95839125 0.0056764276)
(0 0 1)
(0.16303521 -0.98659971 -0.0063670511)
(-0 0 -1)
(0.21170333 0.97731684 0.0057876846)
(0 -0 1)
(0.53554753 0.84448275 -0.0061429929)
(0 -0 -1)
(0.97974782 0.20014741 -0.0059353613)
(0 -0 -1)
(-0.97463338 0.22375401 0.0048910372)
(0 0 1)
(-0.97450009 -0.22433407 -0.004879555)
(0 0 -1)
(-0.47112129 0.88204929 -0.0058126401)
(0 0 -1)
(0.72871452 0.68479714 0.0052945754)
(0 0 1)
(-0.13787723 -0.9904287 -0.0063926513)
(0 0 -1)
(0.92006243 0.39169987 0.0075052503)
(-0 0 1)
(-0.63778951 0.77018762 0.005963361)
(0 -0 1)
(0.85109898 -0.52498023 0.0051260422)
(0 0 1)
(0.65628349 0.75448587 -0.006560918)
(0 -0 -1)
(-0.23694949 0.97150111 -0.0063666122)
(0 0 -1)
(0.87640934 -0.48153162 0.0058281395)
(-0 0 1)
(-0.67525992 -0.73755695 -0.0058121462)
(0 0 -1)
(0.97987678 -0.19956532 0.0038958794)
(-0 0 1)
(-0.88811639 -0.45958099 0.005881962)
(0 0 1)
(0.26042678 0.96548517 -0.0040352927)
(0 0 -1)
(0.92030863 -0.39115516 -0.0054462363)
(0 0 -1)
(-0.18740457 -0.98226921 0.0051697387)
(0 0 1)
(0.79377913 0.60818408 -0.0051792323)
(0 -0 -1)
(-0.80899054 -0.58780202 0.0048054412)
(0 0 1)
(-0.74629378 0.66559316 -0.0055981649)
(0 0 -1)
(-0.80933288 0.58731407 -0.0065175645)
(0 0 -1)
(-0.94708993 -0.32092655 0.0051784488)
(0 0 1)
(-0.37968945 -0.92509799 0.0054438782)
(0 0 1)
(-0.28483537 -0.95856275 0.0051260203)
(0 0 1)
(-0.97463429 0.22375422 -0.0046961597)
(0 0 -1)
(-0.9745009 -0.22433425 0.0047057612)
(0 0 1)
(0.96864124 -0.24840632 -0.0053334108)
(0 0 -1)
(0.92031431 -0.39115757 0.0041629271)
(-0 0 1)
(0.89952092 -0.4368476 -0.0051278038)
(0 0 -1)
(0.79414121 -0.60770787 -0.0055576633)
(-0 0 -1)
(0.012751454 -0.99990395 -0.0054302129)
(-0 0 -1)
(0.65629757 0.75450207 0.00035732915)
(0 0 1)
(0.69337762 0.72057432 -0.00036825011)
(0 0 1)
(-0.92973908 -0.36817991 0.0053656329)
(0 0 1)
(0.96849855 0.24898854 0.0039059353)
(-0 0 1)
(0.72912641 -0.68435913 -0.0052203834)
(-0 0 -1)
(-0.33267762 -0.94302451 -0.0055120555)
(0 0 -1)
(-0.087849995 -0.99611712 0.0057499245)
(0 0 1)
(0.93860404 0.34495865 -0.0050978754)
(0 -0 -1)
(-0.92973883 -0.36817981 -0.0054167273)
(0 0 -1)
(-0.92995812 0.36762559 0.005414069)
(0 0 1)
(-0.83781071 0.54593107 0.0056995188)
(0 0 1)
(-0.8374866 -0.54642813 -0.0056997916)
(0 0 -1)
(0.85109757 -0.52497936 -0.0054399278)
(0 0 -1)
(-0.947274 0.32035867 -0.0065028272)
(0 0 -1)
(0.69379652 -0.72014745 0.005834041)
(0 0 1)
(0.35661841 -0.9342328 0.0056916069)
(0 0 1)
(0.49293896 -0.87004484 -0.0057584325)
(-0 0 -1)
(0.26099432 -0.96531933 -0.0063689165)
(-0 0 -1)
(-0.037577173 -0.99927724 0.0057397004)
(0 0 1)
(0.40312208 -0.91512849 -0.0056953121)
(-0 0 -1)
(0.99488347 0.10085168 0.0059847134)
(-0 0 1)
(0.16303636 -0.98660668 0.0051384066)
(0 0 1)
(0.61802337 -0.7861409 0.0054404809)
(0 0 1)
(0.99872995 -0.05001957 0.0060435817)
(-0 0 1)
(0.40312206 -0.91512844 0.0057053871)
(0 0 1)
(0.063062782 -0.9979918 -0.0059546042)
(-0 0 -1)
(-0.55728468 0.83030263 -0.0055971921)
(0 0 -1)
(-0.51488341 0.85724564 -0.0049979331)
(0 0 -1)
(-0.038170788 0.99925232 -0.0061468927)
(0 0 -1)
(-0.96217868 0.27234904 0.0061793493)
(0 0 1)
(-0.67569743 0.73715707 -0.0056954675)
(0 0 -1)
(-0.96201639 -0.2729217 -0.0061813319)
(0 0 -1)
(-0.47059688 -0.88232965 -0.005741566)
(0 0 -1)
(-0.42565706 -0.90486587 -0.0058152081)
(0 0 -1)
(0.98855119 0.15076802 0.0059628724)
(-0 0 1)
(-0.42620011 0.90462478 -0.0027341603)
(0 0 -1)
(0.062470406 0.99802671 -0.0063354724)
(0 0 -1)
(0.44853894 -0.89374145 0.0062487807)
(0 0 1)
(-0.77843102 -0.62768972 0.0071248219)
(0 0 1)
(0.95494472 -0.29672063 -0.0061197351)
(0 0 -1)
(0.16245218 0.98670074 -0.0055616717)
(0 0 -1)
(-0.94708341 -0.32092433 -0.0063712863)
(0 0 -1)
(-0.94727482 0.32035895 0.0063691512)
(0 0 1)
(0.61801993 -0.78613653 -0.0063805571)
(-0 0 -1)
(-0.13846431 0.99034627 0.0064730828)
(0 -0 1)
(0.93882145 -0.3443985 0.0019876119)
(-0 0 1)
(0.82367552 -0.56703715 -0.0052442946)
(0 0 -1)
(0.7622177 0.6472932 -0.0059735081)
(0 -0 -1)
(0.1624521 0.98670029 0.005644002)
(0 -0 1)
(0.99998219 0.0002997457 0.0059598993)
(-0 0 1)
(-0.51488002 0.85724 0.0061766567)
(0 0 1)
(0.98864221 -0.15017644 0.0057984352)
(-0 0 1)
(-0.59783091 -0.8016136 0.003721492)
(0 0 1)
(0.82333028 0.56752702 0.0063507021)
(0 0 1)
(0.69379419 -0.72014504 -0.0063824425)
(-0 0 -1)
(-0.71189592 0.70226407 -0.0054194829)
(0 0 -1)
(-0.42565689 -0.90486551 0.005883999)
(0 0 1)
(0.99869615 0.050618635 -0.0066141546)
(0 -0 -1)
(-0.18798412 0.98215606 -0.0056075033)
(0 0 -1)
(-0.80934253 0.58732107 0.0043160006)
(0 0 1)
(-0.80899233 -0.58780332 -0.0043196245)
(0 0 -1)
(0.98855311 0.15076831 -0.0056267752)
(0 -0 -1)
(0.79377323 0.60817956 0.0064564553)
(0 0 1)
(-0.99215052 0.12498131 0.0041261179)
(0 0 1)
(-0.99208006 -0.12557572 -0.0028088564)
(0 0 -1)
(-0.6373374 -0.77056941 -0.00488078)
(0 0 -1)
(0.76260186 -0.6468329 0.0067531411)
(0 0 1)
(-0.91007091 -0.41441938 0.0052462082)
(0 0 1)
(0.26099564 -0.96532419 0.0055205465)
(0 0 1)
(0.21227899 -0.9771914 0.0058813194)
(0 0 1)
(-0.9845131 -0.17523136 0.0052850511)
(0 0 1)
(-0.99207096 -0.12557456 0.0051226164)
(0 0 1)
(-0.98461759 0.17464378 -0.0052685085)
(0 0 -1)
(-0.99214602 0.12498075 -0.0051078299)
(0 0 -1)
(-0.33267867 -0.94302748 0.004906208)
(0 0 1)
(0.11324187 -0.99355255 0.005441064)
(0 0 1)
(-0.23637788 -0.97164718 0.0052215695)
(0 0 1)
(0.11265248 0.99361433 -0.0063230582)
(0 0 -1)
(0.89925781 0.43738116 0.0057544029)
(-0 0 1)
(-0.13787797 -0.99043399 0.0054931545)
(0 0 1)
(-0.77880987 0.62723347 -0.0057763717)
(0 0 -1)
(0.57774036 -0.81618188 -0.0079505834)
(-0 0 -1)
(-0.088439254 0.99605797 0.0068570003)
(0 -0 1)
(0.35661657 -0.93422797 -0.0065358172)
(-0 0 -1)
(0.30914529 -0.95099496 -0.0061454107)
(-0 0 -1)
(0.2604246 0.96547706 0.0057507789)
(0 -0 1)
(-0.088440223 0.99606887 -0.0050126651)
(0 0 -1)
(0.57774832 -0.81619314 0.0059697683)
(0 0 1)
(0.92007337 0.39170453 -0.0057050483)
(0 -0 -1)
(-0.92995776 0.36762545 -0.0054852756)
(0 0 -1)
(-0.86388161 -0.50366417 -0.0055641839)
(0 0 -1)
(-0.86418244 0.5031478 0.0055682436)
(0 0 1)
(0.72912188 -0.68435487 0.0062997839)
(0 0 1)
(0.93880476 -0.34439237 -0.006285963)
(0 0 -1)
(0.65673758 -0.75409811 0.0056384994)
(0 0 1)
(0.99494419 -0.10025592 0.005899747)
(-0 0 1)
(-0.18740284 -0.98226016 -0.0067193221)
(0 0 -1)
(0.11324154 -0.99354968 -0.0059486779)
(-0 0 -1)
(0.97987252 -0.19956445 -0.0048859168)
(0 0 -1)
(0.87641173 -0.48153294 -0.005338786)
(0 0 -1)
(0.65673459 -0.75409468 -0.006393964)
(-0 0 -1)
(0.4485403 -0.89374416 -0.0057422204)
(-0 0 -1)
(0.01215923 0.99990647 -0.0062609523)
(0 0 -1)
(0.97975432 0.20014874 0.0046849082)
(-0 0 1)
(0.063062497 -0.9979873 0.0066693032)
(0 0 1)
(0.99998436 0.00029974635 -0.005584876)
(0 -0 -1)
(0.99869981 0.05061882 0.0060353047)
(-0 0 1)
(-0.96217868 0.27234904 -0.0061794773)
(0 0 -1)
(0.96864093 -0.24840624 -0.0053931288)
(-0 0 1)
(-0.038170552 0.99924614 0.0070824647)
(0 -0 1)
(0.44801165 0.89400865 0.0058391448)
(0 -0 1)
(0.21227807 -0.97718716 -0.0065788339)
(-0 0 -1)
(-0.74589195 -0.66603084 -0.0069364686)
(0 0 -1)
(-0.74628764 0.66558768 0.0069139507)
(0 0 1)
(0.99488231 0.10085156 -0.0061767573)
(0 -0 -1)
(-0.59829879 0.80125144 0.0058892609)
(0 -0 1)
(-0.18798325 0.98215148 0.0063845018)
(0 -0 1)
(-0.83780312 0.54592612 -0.007113122)
(0 0 -1)
(0.82367561 -0.56703721 0.0052245732)
(0 0 1)
(-0.86417629 0.50314423 -0.0067246617)
(0 0 -1)
(-0.51437131 -0.85754652 -0.0060103951)
(0 0 -1)
(0.69336072 0.72055675 -0.0069917046)
(0 -0 -1)
(-0.98451442 -0.1752316 -0.0050247796)
(0 0 -1)
(-0.98461908 0.17464404 0.0049724459)
(0 0 1)
(-0.71189248 0.70226068 0.0062470366)
(0 0 1)
(-0.33323368 0.94281547 -0.0073688108)
(0 0 -1)
(0.57726394 0.8165333 -0.0063029095)
(0 -0 -1)
(0.44800283 0.89399104 -0.0085723366)
(0 -0 -1)
(0.062470932 0.99803511 0.0048266124)
(0 -0 1)
(-0.037577159 -0.99927686 -0.0058060559)
(0 0 -1)
(-0.71147919 -0.70268268 -0.0058662398)
(0 0 -1)
(-0.38023691 0.92487056 0.0058603823)
(0 -0 1)
(0.96848271 0.24898447 -0.006927083)
(0 -0 -1)
(0.93858622 0.3449521 0.0079974141)
(-0 0 1)
(-0.63779144 0.77018996 -0.0054320429)
(0 0 -1)
(-0.51437644 -0.85755507 -0.0040228448)
(0 0 1)
(-0.55679799 -0.83064199 0.0031427195)
(0 0 1)
(0.35606169 0.93443415 0.0072727507)
(0 0 1)
(-0.91006438 -0.41441641 -0.0064709547)
(0 0 -1)
(-0.91031081 0.4138749 0.0064653064)
(0 0 1)
(0.8761149 0.48205022 -0.0070902342)
(0 -0 -1)
(-0.86387832 -0.50366225 0.0062119631)
(0 0 1)
(0.49241778 0.8703264 -0.007528829)
(0 -0 -1)
(-0.88837691 0.45904311 0.0081164135)
(0 0 -1)
(-0.91031757 0.41387798 -0.0051914504)
(0 0 -1)
(0.89949725 -0.43683611 0.0088830214)
(-0 0 1)
(0.85078233 0.52548722 0.0057102146)
(0 0 1)
(0.95495483 -0.29672378 0.0040334588)
(-0 0 1)
(0.21170288 0.97731474 -0.0061480437)
(0 0 -1)
(-0.99967812 -0.025165915 0.0032143154)
(0 0 1)
(-0.99714026 -0.075461958 -0.0040985687)
(0 0 1)
(-0.99718588 0.074865308 0.0039386724)
(0 0 -1)
(-0.99968606 0.024866138 -0.0030743882)
(-0 0 -1)
(0.53604516 -0.84416528 -0.0063689569)
(-0 0 -1)
(0.30914275 -0.95098714 0.0073637538)
(0 0 1)
(-0.55678229 -0.83061857 -0.0081407405)
(0 0 -1)
(-0.470596 -0.88232801 0.0060563573)
(0 0 1)
(-0.38023719 0.92487122 -0.0057360973)
(0 0 -1)
(0.61755338 0.7865028 -0.0064160198)
(0 -0 -1)
(-0.28539717 0.95837679 -0.007898169)
(0 0 -1)
(0.49242273 0.87033517 0.0060454198)
(0 -0 1)
(-0.087847753 -0.9960917 -0.0091702126)
(0 0 -1)
(0.53604469 -0.84416454 0.0065061639)
(0 0 1)
(-0.71146866 -0.70267228 0.0080004755)
(0 0 1)
(-0.83748373 -0.54642625 0.0062733784)
(0 0 1)
(0.012751389 -0.99989883 0.0063027221)
(0 0 1)
(-0.67569537 0.73715482 0.0062072681)
(0 -0 1)
(-0.99716908 0.074864046 0.0070146328)
(0 0 1)
(-0.23695073 0.9715062 0.0054831008)
(0 -0 1)
(-0.99714164 -0.075462063 -0.0037441961)
(0 0 -1)
(-0.59828564 0.80123382 -0.0088690435)
(0 0 -1)
(-0.74589761 -0.66603589 0.0057406424)
(0 0 1)
(0.30858354 0.95118334 -0.0051424296)
(0 0 -1)
(-0.96200687 -0.272919 0.0076155895)
(0 0 1)
(0.87610322 0.48204379 0.0087712675)
(-0 0 1)
(0.76259841 -0.64682998 -0.0073924462)
(-0 0 -1)
(0.35606537 0.9344438 -0.0056780911)
(0 -0 -1)
(0.99872037 -0.05001909 -0.0074641413)
(0 0 -1)
(0.82330189 0.56750745 -0.010453825)
(0 -0 -1)
(0.85075541 0.5254706 -0.0097917434)
(0 -0 -1)
(0.95475735 0.29728814 -0.0076268894)
(0 -0 -1)
(-0.67523973 -0.73753491 0.0096729277)
(0 0 1)
(-0.63731712 -0.77054488 0.0093529011)
(0 0 1)
(0.95476546 0.29729067 0.0064174168)
(-0 0 1)
(0.49293351 -0.87003522 0.007434926)
(0 0 1)
(0.89925968 0.43738207 -0.0053799609)
(0 -0 -1)
(-0.23637594 -0.97163922 -0.0066065871)
(0 0 -1)
(0.11265306 0.99361944 0.0054495575)
(0 -0 1)
(0.99493121 -0.10025461 -0.0078042819)
(0 0 -1)
(-0.88809088 -0.45956779 -0.0095935976)
(0 0 -1)
(0.012158938 0.99988241 0.0093449812)
(0 -0 1)
(-0.8883653 0.45903711 0.0095933889)
(0 0 1)
(-0.33323847 0.94282903 0.0050542587)
(0 -0 1)
(0.72870971 0.68479262 -0.0064204357)
(0 -0 -1)
(0.40257832 0.91536251 0.0064941083)
(0 -0 1)
(-0.42618267 0.90458777 0.0094495351)
(0 -0 1)
(-0.7787961 0.62722239 0.0082889776)
(0 0 1)
(-0.77842391 -0.62768399 -0.0083080368)
(0 0 -1)
(0.98861338 -0.15017206 -0.0095886233)
(0 0 -1)
(-0.28483326 -0.95855567 -0.0064062573)
(0 0 -1)
(-0.55728177 0.83029828 0.006465272)
(0 -0 1)
(-0.47112 0.88204689 0.006263091)
(0 -0 1)
(0.53552724 0.84445076 0.010652804)
(0 0 1)
(0.57725193 0.81651632 0.0090166914)
(0 0 1)
(0.61755184 0.78650085 0.0067925721)
(0 0 1)
(-0.37969089 -0.92510149 -0.0046979728)
(0 0 -1)
(-0.99969079 0.024866256 0)
(0 0 1)
(-0.99968328 -0.025166045 0)
(0 0 -1)
)

// normal volume types

500
(
0
0
0
0
0
0
0
0
0
0
0
0
0
0
0
0
0
0
0
0
0
0
0
0
0
0
0
0
0
0
0
0
0
0
0
0
0
0
0
0
0
0
0
0
0
0
0
0
0
0
0
0
0
0
0
0
0
0
0
0
0
0
0
0
0
0
0
0
0
0
0
0
0
0
0
0
0
0
0
0
0
0
0
0
0
0
0
0
0
0
0
0
0
0
0
0
0
0
0
0
0
0
0
0
0
0
0
0
0
0
0
0
0
0
0
0
0
0
0
0
0
0
0
0
0
0
0
0
0
0
0
0
0
0
0
0
0
0
0
0
0
0
0
0
0
0
0
0
0
0
0
0
0
0
0
0
0
0
0
0
0
0
0
0
0
0
0
0
0
0
0
0
0
0
0
0
0
0
0
0
0
0
0
0
0
0
0
0
0
0
0
0
0
0
0
0
0
0
0
0
0
0
0
0
0
0
0
0
0
0
0
0
0
0
0
0
0
0
0
0
0
0
0
0
0
0
0
0
0
0
0
0
0
0
0
0
0
0
0
0
0
0
0
0
0
0
0
0
0
0
0
0
0
0
0
0
0
0
0
0
0
0
0
0
0
0
0
0
0
0
0
0
0
0
0
0
0
0
0
0
0
0
0
0
0
0
0
0
0
0
0
0
0
0
0
0
0
0
0
0
0
0
0
0
0
0
0
0
0
0
0
0
0
0
0
0
0
0
0
0
0
0
0
0
0
0
0
0
0
0
0
0
0
0
0
0
0
0
0
0
0
0
0
0
0
0
0
0
0
0
0
0
0
0
0
0
0
0
0
0
0
0
0
0
0
0
0
0
0
0
0
0
0
0
0
0
0
0
0
0
0
0
0
0
0
0
0
0
0
0
0
0
0
0
0
0
0
0
0
0
0
0
0
0
0
0
0
0
0
0
0
0
0
0
0
0
0
0
0
0
0
0
0
0
0
0
0
0
0
0
0
0
0
0
0
0
0
0
0
0
0
0
0
0
0
0
0
0
0
0
0
0
0
0
0
0
0
0
0
0
0
0
0
0
0
0
0
0
0
0
0
0
0
0
0
0
0
0
0
0
0
0
0
0
0
0
0
0
0
0
0
0
0
0
0
0
0
0
0
0
)

// normalDirections

250
(
2(1 -1)
2(1 -1)
2(1 -1)
2(1 -1)
2(1 -1)
2(1 -1)
2(1 -1)
2(1 -1)
2(1 -1)
2(1 -1)
2(1 -1)
2(1 -1)
2(1 -1)
2(1 -1)
2(1 -1)
2(1 -1)
2(1 -1)
2(1 -1)
2(1 -1)
2(1 -1)
2(1 -1)
2(1 -1)
2(1 -1)
2(1 -1)
2(1 -1)
2(1 -1)
2(1 -1)
2(1 -1)
2(1 -1)
2(1 -1)
2(1 -1)
2(1 -1)
2(1 -1)
2(1 -1)
2(1 -1)
2(1 -1)
2(1 -1)
2(1 -1)
2(1 -1)
2(1 -1)
2(1 -1)
2(1 -1)
2(1 -1)
2(1 -1)
2(1 -1)
2(1 -1)
2(1 -1)
2(1 -1)
2(1 -1)
2(1 -1)
2(1 -1)
2(1 -1)
2(1 -1)
2(1 -1)
2(1 -1)
2(1 -1)
2(1 -1)
2(1 -1)
2(1 -1)
2(1 -1)
2(1 -1)
2(1 -1)
2(1 -1)
2(1 -1)
2(1 -1)
2(1 -1)
2(1 -1)
2(1 -1)
2(1 -1)
2(1 -1)
2(1 -1)
2(1 -1)
2(1 -1)
2(1 -1)
2(1 -1)
2(1 -1)
2(1 -1)
2(1 -1)
2(1 -1)
2(1 -1)
2(1 -1)
2(1 -1)
2(1 -1)
2(1 -1)
2(1 -1)
2(1 -1)
2(1 -1)
2(1 -1)
2(1 -1)
2(1 -1)
2(1 -1)
2(1 -1)
2(1 -1)
2(1 -1)
2(1 -1)
2(1 -1)
2(1 -1)
2(1 -1)
2(1 -1)
2(1 -1)
2(1 -1)
2(1 -1)
2(1 -1)
2(1 -1)
2(1 -1)
2(1 -1)
2(1 -1)
2(1 -1)
2(1 -1)
2(1 -1)
2(1 -1)
2(1 -1)
2(1 -1)
2(1 -1)
2(1 -1)
2(1 -1)
2(1 -1)
2(1 -1)
2(1 -1)
2(1 -1)
2(1 -1)
2(1 -1)
2(1 -1)
2(1 -1)
2(1 -1)
2(1 -1)
2(1 -1)
2(1 -1)
2(1 -1)
2(1 -1)
2(1 -1)
2(1 -1)
2(1 -1)
2(1 -1)
2(1 -1)
2(1 -1)
2(1 -1)
2(1 -1)
2(1 -1)
2(1 -1)
2(1 -1)
2(1 -1)
2(1 -1)
2(1 -1)
2(1 -1)
2(1 -1)
2(1 -1)
2(1 -1)
2(1 -1)
2(1 -1)
2(1 -1)
2(1 -1)
2(1 -1)
2(1 -1)
2(1 -1)
2(1 -1)
2(1 -1)
2(1 -1)
2(1 -1)
2(1 -1)
2(1 -1)
2(1 -1)
2(1 -1)
2(1 -1)
2(1 -1)
2(1 -1)
2(1 -1)
2(1 -1)
2(1 -1)
2(1 -1)
2(1 -1)
2(1 -1)
2(1 -1)
2(1 -1)
2(1 -1)
2(1 -1)
2(1 -1)
2(1 -1)
2(1 -1)
2(1 -1)
2(1 -1)
2(1 -1)
2(1 -1)
2(1 -1)
2(1 -1)
2(1 -1)
2(1 -1)
2(1 -1)
2(1 -1)
2(1 -1)
2(1 -1)
2(1 -1)
2(1 -1)
2(1 -1)
2(1 -1)
2(1 -1)
2(1 -1)
2(1 -1)
2(1 -1)
2(1 -1)
2(1 -1)
2(1 -1)
2(1 -1)
2(1 -1)
2(1 -1)
2(1 -1)
2(1 -1)
2(1 -1)
2(1 -1)
2(1 -1)
2(1 -1)
2(1 -1)
2(1 -1)
2(1 -1)
2(1 -1)
2(1 -1)
2(1 -1)
2(1 -1)
2(1 -1)
2(1 -1)
2(1 -1)
2(1 -1)
2(1 -1)
2(1 -1)
2(1 -1)
2(1 -1)
2(1 -1)
2(1 -1)
2(1 -1)
2(1 -1)
2(1 -1)
2(1 -1)
2(1 -1)
2(1 -1)
2(1 -1)
2(1 -1)
2(1 -1)
2(1 -1)
2(1 -1)
2(1 -1)
2(1 -1)
2(1 -1)
2(1 -1)
2(1 -1)
2(1 -1)
2(1 -1)
2(1 -1)
2(1 -1)
2(1 -1)
2(1 -1)
)

// edgeNormals

250
(
2(0 1)
2(2 3)
2(4 5)
2(6 7)
2(8 9)
2(10 11)
2(12 13)
2(14 15)
2(16 17)
2(18 19)
2(20 21)
2(22 23)
2(24 25)
2(26 27)
2(28 29)
2(30 31)
2(32 33)
2(34 35)
2(36 37)
2(38 39)
2(40 41)
2(42 43)
2(44 45)
2(46 47)
2(48 49)
2(50 51)
2(52 53)
2(54 55)
2(56 57)
2(58 59)
2(60 61)
2(62 63)
2(64 65)
2(66 67)
2(68 69)
2(70 71)
2(72 73)
2(74 75)
2(76 77)
2(78 79)
2(80 81)
2(82 83)
2(84 85)
2(86 87)
2(88 89)
2(90 91)
2(92 93)
2(94 95)
2(96 97)
2(98 99)
2(100 101)
2(102 103)
2(104 105)
2(106 107)
2(108 109)
2(110 111)
2(112 113)
2(114 115)
2(116 117)
2(118 119)
2(120 121)
2(122 123)
2(124 125)
2(126 127)
2(128 129)
2(130 131)
2(132 133)
2(134 135)
2(136 137)
2(138 139)
2(140 141)
2(142 143)
2(144 145)
2(146 147)
2(148 149)
2(150 151)
2(152 153)
2(154 155)
2(156 157)
2(158 159)
2(160 161)
2(162 163)
2(164 165)
2(166 167)
2(168 169)
2(170 171)
2(172 173)
2(174 175)
2(176 177)
2(178 179)
2(180 181)
2(182 183)
2(184 185)
2(186 187)
2(188 189)
2(190 191)
2(192 193)
2(194 195)
2(196 197)
2(198 199)
2(200 201)
2(202 203)
2(204 205)
2(206 207)
2(208 209)
2(210 211)
2(212 213)
2(214 215)
2(216 217)
2(218 219)
2(220 221)
2(222 223)
2(224 225)
2(226 227)
2(228 229)
2(230 231)
2(232 233)
2(234 235)
2(236 237)
2(238 239)
2(240 241)
2(242 243)
2(244 245)
2(246 247)
2(248 249)
2(250 251)
2(252 253)
2(254 255)
2(256 257)
2(258 259)
2(260 261)
2(262 263)
2(264 265)
2(266 267)
2(268 269)
2(270 271)
2(272 273)
2(274 275)
2(276 277)
2(278 279)
2(280 281)
2(282 283)
2(284 285)
2(286 287)
2(288 289)
2(290 291)
2(292 293)
2(294 295)
2(296 297)
2(298 299)
2(300 301)
2(302 303)
2(304 305)
2(306 307)
2(308 309)
2(310 311)
2(312 313)
2(314 315)
2(316 317)
2(318 319)
2(320 321)
2(322 323)
2(324 325)
2(326 327)
2(328 329)
2(330 331)
2(332 333)
2(334 335)
2(336 337)
2(338 339)
2(340 341)
2(342 343)
2(344 345)
2(346 347)
2(348 349)
2(350 351)
2(352 353)
2(354 355)
2(356 357)
2(358 359)
2(360 361)
2(362 363)
2(364 365)
2(366 367)
2(368 369)
2(370 371)
2(372 373)
2(374 375)
2(376 377)
2(378 379)
2(380 381)
2(382 383)
2(384 385)
2(386 387)
2(388 389)
2(390 391)
2(392 393)
2(394 395)
2(396 397)
2(398 399)
2(400 401)
2(402 403)
2(404 405)
2(406 407)
2(408 409)
2(410 411)
2(412 413)
2(414 415)
2(416 417)
2(418 419)
2(420 421)
2(422 423)
2(424 425)
2(426 427)
2(428 429)
2(430 431)
2(432 433)
2(434 435)
2(436 437)
2(438 439)
2(440 441)
2(442 443)
2(444 445)
2(446 447)
2(448 449)
2(450 451)
2(452 453)
2(454 455)
2(456 457)
2(458 459)
2(460 461)
2(462 463)
2(464 465)
2(466 467)
2(468 469)
2(470 471)
2(472 473)
2(474 475)
2(476 477)
2(478 479)
2(480 481)
2(482 483)
2(484 485)
2(486 487)
2(488 489)
2(490 491)
2(492 493)
2(494 495)
2(496 497)
2(498 499)
)

// featurePointNormals
0()
// featurePointEdges
0()
// regionEdges
0()

// ************************************************************************* //
