/*--------------------------------*- C++ -*----------------------------------*\
  =========                 |
  \\      /  F ield         | OpenFOAM: The Open Source CFD Toolbox
   \\    /   O peration     | Website:  https://openfoam.org
    \\  /    A nd           | Version:  12
     \\/     M anipulation  |
\*---------------------------------------------------------------------------*/
FoamFile
{
    format      ascii;
    class       dictionary;
    object      snappyHexMeshDict;
}
// * * * * * * * * * * * * * * * * * * * * * * * * * * * * * * * * * * * * * //

#includeEtc "caseDicts/mesh/generation/snappyHexMeshDict.cfg"

// Which of the steps to run
castellatedMesh true;
snap            true;
addLayers       false;

geometry
{
    banana_stlSurface
    {
        type triSurfaceMesh;
        file "surfacemesh.stl";
    }

    refinementBox
    {
        type searchableBox; // This is the zone where we want to apply the refinement
        min (-2 -2 -2); // Dimensions of geometrical entity
        max (2 2 2); // Dimensions of geometrical entity
    }

};

castellatedMeshControls
{

    // Refinement parameters
    maxLocalCells 100000;
    maxGlobalCells 2000000;
    minRefinementCells 0;
    maxLoadUnbalance 0.10;
    nCellsBetweenLevels 3;
    
    // Explicit feature edge refinement
    features
    (
        {
            file "surfacemesh.eMesh"; // To enable and control edge refinement level
            // level 6;
            level 6;
        }
    );
    
    // Surface based refinement
    refinementSurfaces
    {
        banana_stlSurface
        {
	        // global
            // Surface-wise min and max refinement level
            /*
            To control surface refinement. The first digit controls the global surface refinement level, 
            and the second digit controls the curvature refinement level, 
            according to the angle set in the entry resolveFeatureAngle
            */
            level (2 4);
        }
    }

    // Local curvature and feature angle refinement
    resolveFeatureAngle 5;		//recommended
    //resolveFeatureAngle 60;		//To avoid too much refinement with curvature	

    planarAngle 30;

    // Region-wise refinement
    refinementRegions
    {
        refinementBox
        {
            mode inside;        	// inside - outside // Type of refinement (inside, outside, or distance mode)
            levels ((1 1));     	// min max // If distance mode is used, 
                                    // it represents the distance normal to the wall (in both direction)
            //mode distance;        	// 
            //levels ((0.1 1));     	//first number distance normal to the surface in both direction
        }
    }
    
    // Mesh selection
    locationInMesh (4.0 0.1 0.1); 
    allowFreeStandingZoneFaces true;
}

snapControls
{
    nSmoothPatch 3; // recommended
    // nSmoothPatch 10; // improved
    tolerance 2.0;
    // tolerance 1.0;
    nSolveIter 30; // recommended
    // nSolveIter 100; // improved
    nRelaxIter 5; // recommended
    // nRelaxIter 10; //improved 10-20-50

    // Feature snapping
    nFeatureSnapIter 10;    // recommended
    // nFeatureSnapIter 100;     // improved 20-50-100
    implicitFeatureSnap false;
    explicitFeatureSnap true;
    multiRegionFeatureSnap false;
}

addLayersControls
{
    // Layer thickness specification. This can be specified in one of following
    // ways:
    // - expansionRatio and finalLayerThickness (cell nearest internal mesh)
    // - expansionRatio and firstLayerThickness (cell on surface)
    // - overall thickness and firstLayerThickness
    // - overall thickness and finalLayerThickness
    // - overall thickness and expansionRatio
    layers
    {
        banana_stlSurface
        {
            nSurfaceLayers 3;
        }
    }

    relativeSizes       true; // false, usually with firstLayerThickness
    expansionRatio      1.2;
    finalLayerThickness 0.5;
    minThickness        0.01;
//  minThickness      1e-3;
//  firstLayerThickness 0.01;

//  maxThicknessToMedialRatio 0.6;

    nGrow 0;

    // Advanced settings
    featureAngle 130; //default
    maxFaceThicknessRatio 0.5;
    nSmoothSurfaceNormals 1;
    nSmoothThickness 10;
    minMedialAxisAngle 90;
    minMedianAxisAngle 90;
    maxThicknessToMedialRatio 0.3;
    nSmoothNormals 3;
    slipFeatureAngle 30;
    nRelaxIter 5;
    nBufferCellsNoExtrude 0;
    nLayerIter 50;
    nRelaxedIter 20;
}

meshQualityControls
{
    #include "meshQualityDict"

    // Number of error distribution iterations
    nSmoothScale 4;
    // amount to scale back displacement at error points
    errorReduction 0.75;
}

debugFlags
(
    // mesh            // write intermediate meshes
    // intersections   // write current mesh intersections as .obj files
    // featureSeeds    // write information about explicit feature edge refinement
    // attraction      // write attraction as .obj files
    // layerInfo       // write information about layers
);

writeFlags
(
    // scalarLevels    // write volScalarField with cellLevel for postprocessing
    // layerSets       // write cellSets, faceSets of faces in layer
    // layerFields     // write volScalarField for layer coverage
);


mergeTolerance 1e-6;

// ************************************************************************* //
